.model jjmod jj(Rtype=1, Vg=2.71572mV, Cap=0.218pF, R0=200ohm, Rn=17ohm, Icrit=100uA)
B8                1        2   jjmod area=2.50
RS8               1        2   5.48ohm 
IRS8   1   2   NOISE(6.506p 0.0 1.0p)
Rsource           2        0   1ohm
I0                0        1   PWL(0ps 0mA 100ps 0.5mA)
I1               1         0   SIN(0ps 0.2mA 60GHZ 0us 0)
.tran 0.2ps 500PS 0.1PS 0.1PS
.FILE OUT.DAT  
.PRINT DEVI Rsource
.PRINT nodev 1 2
.PRINT DEVI RS8
