**** **** **** **** **** **** **** **** **** **** **** 
*JSIM control file for CADENCE by kameda@cq.jp.nec.com
**** **** **** **** **** **** **** **** **** **** ****

*JSIM model
.model jjmod jj(Rtype=1, Vg=2.8mV, Cap=0.218pF, R0=200ohm, Rn=17ohm, Icrit=0.1mA)

*** netlist file ***
**** **** **** **** **** **** **** ****+
*** Lib : sasan
*** Cell: ALUjsim
*** View: schematic
*** Nov 16 19:57:33 2017
**** **** **** **** **** **** **** ****

*** dffh
.subckt dffh          1          2          3        24
***       clk       din      dout
B4                 4         5  jjmod area=1.69
RS4                4         5   2.21ohm *SHUNT=3.73
B6                 6         7  jjmod area=2.25
RS6                6         7   1.66ohm *SHUNT=3.73
B1                 8         9  jjmod area=1.62
RS1                8         9   2.30ohm *SHUNT=3.73
B3                10        11  jjmod area=2.34
RS3               10        11   1.60ohm *SHUNT=3.73
B2                12        13  jjmod area=2.16
RS2               12        13   1.73ohm *SHUNT=3.73
B5                14        15  jjmod area=2.16
RS5               14        15   1.73ohm *SHUNT=3.73
LP4                5         0   0.031pH fcheck
LP6                7         0   0.125pH fcheck
L9                 8         4   0.320pH fcheck
L8                 6         3   2.480pH fcheck
L4                 4         6   4.729pH fcheck
LPR2              16        17   0.296pH fcheck
L3                18         8   6.362pH fcheck
L2                10        18   1.498pH fcheck
LPIN               2        17   0.346pH fcheck
L7                17        12   2.850pH fcheck
LP3               11         0   0.044pH fcheck
L5                12        10   4.527pH fcheck
LP2               13         0   0.218pH fcheck
LP5               15         0   0.257pH fcheck
LPR1              19        18   0.042pH fcheck
L1                14         9   3.195pH fcheck
LPCLK              1        20   0.387pH fcheck
LPR3              21        20   0.367pH fcheck
L6                20        14   2.600pH fcheck
R2                24        16   8.34ohm
R1                24        19  21.47ohm
R3                24        21   8.34ohm
.ends

*** jtl3
.subckt jtl3          2          3        26
***       din      dout
R2                26        27  16.65ohm
R1                26        28   8.34ohm
LPR2              27        15   4.277pH fcheck
L3                29        15   0.091pH fcheck
LP3               30         0   0.205pH fcheck
L5                31         3   1.890pH fcheck
LPIN               2        32   0.359pH fcheck
LPR1              28        32   0.270pH fcheck
L2                33        29   5.130pH fcheck
L4                15        31   4.945pH fcheck
L1                32        33   2.379pH fcheck
LP2               34         0   0.234pH fcheck
LP1                7         0   0.250pH fcheck
B3                31        30  jjmod area=2.16
RS3               31        30   1.73ohm *SHUNT=3.73
B2                29        34  jjmod area=2.16
RS2               29        34   1.73ohm *SHUNT=3.73
B1                33         7  jjmod area=2.16
RS1               33         7   1.73ohm *SHUNT=3.73
.ends

*** jtlu
.subckt jtlu          2          3        26
***       din      dout
R1                26        28   8.34ohm
LPIN               2        32   0.200pH fcheck
LPR1              28        32   0.237pH fcheck
L2                33        15   4.753pH fcheck
L3                15         3   1.794pH fcheck
L1                32        33   2.041pH fcheck
LP2               34         0   0.364pH fcheck
LP1                7         0   0.304pH fcheck
B2                15        34  jjmod area=2.16
RS2               15        34   1.73ohm *SHUNT=3.73
B1                33         7  jjmod area=2.16
RS1               33         7   1.73ohm *SHUNT=3.73
.ends

*** jtlx2x
.subckt jtlx2x         35         36         37         38         39         40         9
***      dina      dinb      dinc     douta     doutb     doutc
R1A                9        43   8.34ohm
R1B                9        44   8.34ohm
R1C                9        45   8.34ohm
LPINA             35        46   0.341pH fcheck
LPR1A             43        46   0.224pH fcheck
L2A               18        47   4.919pH fcheck
L3A               47        38   1.979pH fcheck
L1A               46        18   2.392pH fcheck
LP2A              48         0   0.273pH fcheck
LP1A              49         0   0.143pH fcheck
LPINB             36        50   0.257pH fcheck
LPR1B             44        50   0.260pH fcheck
L2B               51        52   4.839pH fcheck
L3B               52        39   1.940pH fcheck
L1B               50        51   2.434pH fcheck
LP2B              53         0   0.229pH fcheck
LP1B              54         0   0.239pH fcheck
LPINC             37        55   0.257pH fcheck
LPR1C             45        55   0.229pH fcheck
L2C               56        57   4.818pH fcheck
L3C               57        40   1.973pH fcheck
L1C               55        56   2.246pH fcheck
LP2C              16         0   0.390pH fcheck
LP1C              19         0   0.177pH fcheck
B2A               47        48  jjmod area=2.16
RS2A              47        48   1.73ohm *SHUNT=3.73
B1A               18        49  jjmod area=2.16
RS1A              18        49   1.73ohm *SHUNT=3.73
B2B               52        53  jjmod area=2.16
RS2B              52        53   1.73ohm *SHUNT=3.73
B1B               51        54  jjmod area=2.16
RS1B              51        54   1.73ohm *SHUNT=3.73
B2C               57        16  jjmod area=2.16
RS2C              57        16   1.73ohm *SHUNT=3.73
B1C               56        19  jjmod area=2.16
RS1C              56        19   1.73ohm *SHUNT=3.73
.ends

*** dff
.subckt dff          1          2          3        24
***       clk       din      dout
B4                 4         5  jjmod area=1.69
RS4                4         5   2.21ohm *SHUNT=3.73
B6                 6         7  jjmod area=2.25
RS6                6         7   1.66ohm *SHUNT=3.73
B1                 8         9  jjmod area=1.63
RS1                8         9   2.29ohm *SHUNT=3.73
B3                10        11  jjmod area=2.34
RS3               10        11   1.60ohm *SHUNT=3.73
B2                12        13  jjmod area=2.16
RS2               12        13   1.73ohm *SHUNT=3.73
B5                14        15  jjmod area=2.16
RS5               14        15   1.73ohm *SHUNT=3.73
LP4                5         0   0.783pH fcheck
LP6                7         0   0.107pH fcheck
L9                 8         4   0.026pH fcheck
L8                 6         3   2.421pH fcheck
L4                 4         6   4.680pH fcheck
LPR2              16        17   0.273pH fcheck
L3                18         8   6.565pH fcheck
L2                10        18   1.581pH fcheck
LPIN               2        17   0.359pH fcheck
L7                17        12   2.629pH fcheck
LP3               11         0   0.081pH fcheck
L5                12        10   4.633pH fcheck
LP2               13         0   0.088pH fcheck
LP5               15         0   0.156pH fcheck
LPR1              19        18   0.515pH fcheck
L1                14         9   3.424pH fcheck
LPCLK              1        20   0.351pH fcheck
LPR3              21        20   0.278pH fcheck
L6                20        14   2.584pH fcheck
R2                24        16   8.34ohm
R1                24        19  21.42ohm
R3                24        21   8.34ohm
.ends

*** jtlulr
.subckt jtlulr         35         36         38         39        58
***      dina      dinb     douta     doutb
R1A               58        59   8.34ohm
R1B               58        18   8.34ohm
LPINA             35        34   0.270pH fcheck
LPR1A             59        34   0.221pH fcheck
L2A               43        60   4.867pH fcheck
L3A               60        38   2.015pH fcheck
L1A               34        43   2.291pH fcheck
LP2A              61         0   0.242pH fcheck
LP1A              62         0   0.169pH fcheck
LPINB             36        63   0.263pH fcheck
LPR1B             18        63   0.226pH fcheck
L2B               44        64   4.849pH fcheck
L3B               64        39   2.098pH fcheck
L1B               63        44   2.291pH fcheck
LP2B              10         0   0.148pH fcheck
LP1B              21         0   0.104pH fcheck
B2A               60        61  jjmod area=2.16
RS2A              60        61   1.73ohm *SHUNT=3.73
B1A               43        62  jjmod area=2.16
RS1A              43        62   1.73ohm *SHUNT=3.73
B2B               64        10  jjmod area=2.16
RS2B              64        10   1.73ohm *SHUNT=3.73
B1B               44        21  jjmod area=2.16
RS1B              44        21   1.73ohm *SHUNT=3.73
.ends

*** jtlccrls
.subckt jtlccrls         35         36         38         39        21
***      dina      dinb     douta     doutb
B1A                7        33  jjmod area=2.16
RS1A               7        33   1.73ohm *SHUNT=3.73
B2A               65        15  jjmod area=2.16
RS2A              65        15   1.73ohm *SHUNT=3.73
B1B               48        47  jjmod area=2.16
RS1B              48        47   1.73ohm *SHUNT=3.73
B2B               11         8  jjmod area=2.16
RS2B              11         8   1.73ohm *SHUNT=3.73
LP1A              33         0   0.122pH fcheck
LP2A              15         0   0.195pH fcheck
L1A               66         7   2.298pH fcheck
L3A               65        38   2.093pH fcheck
L2A                7        65   4.859pH fcheck
LPR1A             46        66   0.226pH fcheck
LPINA             35        66   0.265pH fcheck
LP1B              47         0   0.185pH fcheck
LP2B               8         0   0.289pH fcheck
L1B               13        48   2.280pH fcheck
L3B               11        39   1.950pH fcheck
L2B               48        11   4.836pH fcheck
LPR1B             50        13   0.224pH fcheck
LPINB             36        13   0.276pH fcheck
R1A               21        46   8.34ohm
R1B               21        50   8.34ohm
.ends

*** jtllx2
.subckt jtllx2         35         36         38         39        26
***      dina      dinb     douta     doutb
R1B               26        31   8.34ohm
R1A               26        28   8.34ohm
LPINB             36        67   0.330pH fcheck
LPR1B             31        67   0.198pH fcheck
L2B               68        69   4.750pH fcheck
L3B               69        39   1.846pH fcheck
L1B               67        68   2.257pH fcheck
LP2B              70         0   0.281pH fcheck
LP1B              71         0   0.263pH fcheck
LPINA             35        32   0.377pH fcheck
LPR1A             28        32   0.159pH fcheck
L2A               33        15   4.870pH fcheck
L3A               15        38   1.864pH fcheck
L1A               32        33   2.387pH fcheck
LP2A              34         0   0.296pH fcheck
LP1A               7         0   0.151pH fcheck
B2B               69        70  jjmod area=2.16
RS2B              69        70   1.73ohm *SHUNT=3.73
B1B               68        71  jjmod area=2.16
RS1B              68        71   1.73ohm *SHUNT=3.73
B2A               15        34  jjmod area=2.16
RS2A              15        34   1.73ohm *SHUNT=3.73
B1A               33         7  jjmod area=2.16
RS1A              33         7   1.73ohm *SHUNT=3.73
.ends

*** jtlcclar
.subckt jtlcclar         35         36         38         39        21
***      dina      dinb     douta     doutb
B1A                7        33  jjmod area=2.16
RS1A               7        33   1.73ohm *SHUNT=3.73
B2A               65        15  jjmod area=2.16
RS2A              65        15   1.73ohm *SHUNT=3.73
B1B               48        47  jjmod area=2.16
RS1B              48        47   1.73ohm *SHUNT=3.73
B2B               11         8  jjmod area=2.16
RS2B              11         8   1.73ohm *SHUNT=3.73
LP1A              33         0   0.114pH fcheck
LP2A              15         0   0.122pH fcheck
L1A               66         7   2.356pH fcheck
L3A               65        38   2.072pH fcheck
L2A                7        65   4.911pH fcheck
LPR1A             46        66   0.239pH fcheck
LPINA             35        66   0.317pH fcheck
LP1B              47         0   0.185pH fcheck
LP2B               8         0   0.296pH fcheck
L1B               13        48   2.197pH fcheck
L3B               11        39   2.046pH fcheck
L2B               48        11   4.800pH fcheck
LPR1B             50        13   0.224pH fcheck
LPINB             36        13   0.265pH fcheck
R1A               21        46   8.34ohm
R1B               21        50   8.34ohm
.ends

*** dffe
.subckt dffe          1          2          3        24
***       clk       din      dout
B7                10        72  jjmod area=1.76
RS7               10        72   2.12ohm *SHUNT=3.73
B4                 4         5  jjmod area=1.32
RS4                4         5   2.83ohm *SHUNT=3.73
B6                 6         7  jjmod area=2.28
RS6                6         7   1.64ohm *SHUNT=3.73
B1                 8         9  jjmod area=1.63
RS1                8         9   2.29ohm *SHUNT=3.73
B3                10        11  jjmod area=1.38
RS3               10        11   2.71ohm *SHUNT=3.73
B2                12        13  jjmod area=2.16
RS2               12        13   1.73ohm *SHUNT=3.73
B5                14        15  jjmod area=2.16
RS5               14        15   1.73ohm *SHUNT=3.73
LP4                5         0   0.796pH fcheck
LP6                7         0   0.104pH fcheck
L9                 8         4   0.013pH fcheck
L8                 6         3   2.421pH fcheck
L4                 4         6   4.690pH fcheck
LPR2              16        17   0.286pH fcheck
L3                18         8   9.914pH fcheck
L2                10        18   1.646pH fcheck
LPIN               2        17   0.356pH fcheck
L7                17        12   2.493pH fcheck
LP3               11         0   0.164pH fcheck
L5                12        72   3.169pH fcheck
LP2               13         0   0.166pH fcheck
LP5               15         0   0.156pH fcheck
LPR1              19        18   0.624pH fcheck
L1                14         9   3.429pH fcheck
LPCLK              1        20   0.348pH fcheck
LPR3              21        20   0.296pH fcheck
L6                20        14   2.587pH fcheck
R2                24        16   8.34ohm
R1                24        19  28.53ohm
R3                24        21   8.34ohm
.ends

*** jtlul
.subckt jtlul         35         36         38         39        21
***      dina      dinb     douta     doutb
B1B                7        33  jjmod area=2.16
RS1B               7        33   1.73ohm *SHUNT=3.73
B2B               65        15  jjmod area=2.16
RS2B              65        15   1.73ohm *SHUNT=3.73
B1A               48        47  jjmod area=2.16
RS1A              48        47   1.73ohm *SHUNT=3.73
B2A               11         8  jjmod area=2.16
RS2A              11         8   1.73ohm *SHUNT=3.73
LP1B              33         0   0.109pH fcheck
LP2B              15         0   0.146pH fcheck
L1B               66         7   2.322pH fcheck
L3B               65        39   2.106pH fcheck
L2B                7        65   4.831pH fcheck
LPR1B             46        66   0.231pH fcheck
LPINB             36        66   0.260pH fcheck
LP1A              47         0   0.169pH fcheck
LP2A               8         0   0.242pH fcheck
L1A               13        48   2.285pH fcheck
L3A               11        38   2.015pH fcheck
L2A               48        11   4.862pH fcheck
LPR1A             50        13   0.221pH fcheck
LPINA             35        13   0.270pH fcheck
R1B               21        46   8.34ohm
R1A               21        50   8.34ohm
.ends

*** ptl_2ohm_xx1
.subckt ptl_2ohm_xx1         73         74         75         76         77         78
***      din1      din2      din3     dout1     dout2     dout3
L1                73        79   0.665pH fcheck
L6                75        78   0.665pH fcheck
L5                74        77   0.665pH fcheck
L2                79        80   0.665pH fcheck
L4                32        76   0.665pH fcheck
L3                80        32   0.665pH fcheck
C6                75         0   0.168pF
C1                73         0   0.168pF
C2                79         0   0.168pF
C5                74         0   0.168pF
C3                80         0   0.168pF
C4                32         0   0.168pF
.ends

*** ptl_2ohm_x
.subckt ptl_2ohm_x         73         74         76         77
***      din1      din2     dout1     dout2
C1                74         0   0.168pF
CI30              27         0   0.168pF
Cp                73        68   0.100pF
CI27              68         0   0.168pF
LI29              68        27   0.665pH fcheck
LI32              27        77   0.665pH fcheck
LI35              73        76   0.665pH fcheck
L1                74        68   0.665pH fcheck
.ends

*** ptl_2ohm_c
.subckt ptl_2ohm_c          2          3
***       din      dout
C1                 2         0   0.144pF
L1                 2         3   0.568pH fcheck
.ends

*** source
.subckt source          3
***      dout
Rd                60         0   4.02ohm
L2                 7        60   2.688pH fcheck
L1                 3         7   2.852pH fcheck
LP1               15         0   0.094pH fcheck
B1                 7        15  jjmod area=2.16
RS1                7        15   1.73ohm *SHUNT=3.73
.ends

*** drv_jtl
.subckt drv_jtl          2          3        26
***       din      dout
Rins               3        81   0.68ohm
R1                26        28   8.00ohm
L1                 2        32   0.330pH fcheck
LPR1              28        32   0.244pH fcheck
LPOUT             33        81   1.180pH fcheck
L2                32        33   2.244pH fcheck
LP1                7         0   0.096pH fcheck
B1                33         7  jjmod area=2.50
RS1               33         7   2.98ohm *SHUNT=7.46
.ends

*** sink
.subckt sink          2         9
***       din
R1                 9        46   8.34ohm
R2                60         0   4.02ohm
LPIN               2        65   0.364pH fcheck
LPR1              46        65   0.265pH fcheck
L3                 7        60   5.307pH fcheck
L1                65         7   2.493pH fcheck
LP1               15         0   0.101pH fcheck
B1                 7        15  jjmod area=2.16
RS1                7        15   1.73ohm *SHUNT=3.73
.ends

*** rec
.subckt rec          2          3        26
***       din      dout
R1                26        28  22.90ohm
L1                 2        32   0.296pH fcheck
LPR1              28        32   1.287pH fcheck
L2                33        15   5.366pH fcheck
L3                15         3   2.007pH fcheck
LP3               32        33   0.367pH fcheck
LP2               34         0   0.088pH fcheck
LP1                7         0   0.122pH fcheck
B2                15        34  jjmod area=2.16
RS2               15        34   1.73ohm *SHUNT=3.73
B1                33         7  jjmod area=1.40
RS1               33         7   5.33ohm *SHUNT=7.46
.ends

*** ptl_2ohm
.subckt ptl_2ohm          2          3
***       din      dout
C1                 2         0   0.168pF
L1                 2         3   0.665pH fcheck
.ends

*** cbg
.subckt cbg         82         83         84        93
***         a         b         c
B4                85        64  jjmod area=1.82
RS4               85        64   2.05ohm *SHUNT=3.73
B2                86        20  jjmod area=2.16
RS2               86        20   1.73ohm *SHUNT=3.73
B1                62        66  jjmod area=2.16
RS1               62        66   1.73ohm *SHUNT=3.73
B6                87        50  jjmod area=2.16
RS6               87        50   1.73ohm *SHUNT=3.73
B7                45        63  jjmod area=2.16
RS7               45        63   1.73ohm *SHUNT=3.73
B3                61        64  jjmod area=1.82
RS3               61        64   2.05ohm *SHUNT=3.73
B5                88        11  jjmod area=2.70
RS5               88        11   1.38ohm *SHUNT=3.73
L2                45        86   3.931pH fcheck
L6                86        85   1.227pH fcheck
LPR2              14        16   0.244pH fcheck
L9                89        45   2.371pH fcheck
L7                64        90   0.637pH fcheck
LP2               20         0   0.135pH fcheck
L4                88        84   1.261pH fcheck
LPR3              23        89   0.234pH fcheck
LP7               63         0   0.426pH fcheck
L1                87        62   3.780pH fcheck
LPIN2             83        89   0.364pH fcheck
L5                62        61   1.115pH fcheck
LP6               50         0   0.296pH fcheck
L8                16        87   2.421pH fcheck
L3                90        88   4.324pH fcheck
LP1               66         0   0.304pH fcheck
LPIN1             82        16   0.364pH fcheck
LPR1              91        90   0.042pH fcheck
LP5               11         0   0.419pH fcheck
R1                93        91   9.00ohm
R3                93        23   8.34ohm *FIX
R2                93        14   8.34ohm *FIX
.ends

*** jtlxx2
.subckt jtlxx2         35         36         37         38         39         40       100
***      dina      dinb      dinc     douta     doutb     doutc
B2C               57        50  jjmod area=2.16
RS2C              57        50   1.73ohm *SHUNT=3.73
B1C               55        62  jjmod area=2.16
RS1C              55        62   1.73ohm *SHUNT=3.73
B1A               22        16  jjmod area=2.16
RS1A              22        16   1.73ohm *SHUNT=3.73
B2A               53        19  jjmod area=2.16
RS2A              53        19   1.73ohm *SHUNT=3.73
B1B               95        96  jjmod area=2.16
RS1B              95        96   1.73ohm *SHUNT=3.73
B2B               97        98  jjmod area=2.16
RS2B              97        98   1.73ohm *SHUNT=3.73
LPINA             35        91   0.359pH fcheck
L3B               97        39   1.979pH fcheck
L1B               99        95   2.462pH fcheck
LP1A              16         0   0.117pH fcheck
LP2A              19         0   0.216pH fcheck
L1A               91        22   2.493pH fcheck
L3A               53        38   1.921pH fcheck
L2A               22        53   4.833pH fcheck
L3C               57        40   1.942pH fcheck
L2B               95        97   4.875pH fcheck
LPINB             36        99   0.294pH fcheck
LP2B              98         0   0.159pH fcheck
L2C               55        57   4.875pH fcheck
LPR1C             85        56   0.273pH fcheck
LP2C              50         0   0.200pH fcheck
LP1B              96         0   0.091pH fcheck
LPINC             37        56   0.369pH fcheck
LPR1B             92        99   0.317pH fcheck
LP1C              62         0   0.148pH fcheck
LPR1A             88        91   0.276pH fcheck
L1C               56        55   2.421pH fcheck
R1C              100        85   8.34ohm
R1A              100        88   8.34ohm
R1B              100        92   8.34ohm
.ends

*** t1
.subckt t1        103        104        105        106        46
***     carry     clock      data       sum
RB1               46        60   8.35ohm
RB3               46       107  17.93ohm
RB2               46        93   8.35ohm
LP12              47         0   0.294pH fcheck
LP9                8         0   0.447pH fcheck
LP11              18         0   0.172pH fcheck
LP10               0       102   0.164pH fcheck
LP4                0       108   0.434pH fcheck
LP3                0       109   0.398pH fcheck
LPIN1            104        61   0.153pH fcheck
LPR1              61        60   0.304pH fcheck
L8                61        45   2.311pH fcheck
L4               110        45   2.337pH fcheck
L9                10       106   2.028pH fcheck
L5                85        10   5.431pH fcheck
LX3              111        85   1.009pH fcheck
L7                16       103   2.072pH fcheck
L6                19        16   4.644pH fcheck
LX2              112        19   1.297pH fcheck
LEX4              90       113   0.957pH fcheck
L3               114        90   5.366pH fcheck
LEX3             115        90   1.235pH fcheck
LP1              116         0   0.374pH fcheck
LX1              117       114   1.383pH fcheck
LPR3             107       117   0.291pH fcheck
LEX1             118       119   1.219pH fcheck
LEX2             118       120   0.905pH fcheck
L2               121       118   2.028pH fcheck
LPR2             122        93   0.315pH fcheck
LPIN2            105       122   0.213pH fcheck
L1               122       121   1.872pH fcheck
B11               45        18  jjmod area=2.10
RS11              45        18   1.78ohm *SHUNT=3.73
B8               110       111  jjmod area=1.68
RS8              110       111   2.22ohm *SHUNT=3.73
B12               10        47  jjmod area=2.00
RS12              10        47   1.87ohm *SHUNT=3.73
B9                85         8  jjmod area=1.00
RS9               85         8   3.73ohm *SHUNT=3.73
B10               16       102  jjmod area=2.00
RS10              16       102   1.87ohm *SHUNT=3.73
B3               121       109  jjmod area=2.10
RS3              121       109   1.78ohm *SHUNT=3.73
B7               113       111  jjmod area=1.00
RS7              113       111   3.73ohm *SHUNT=3.73
B5               120       112  jjmod area=1.21
RS5              120       112   3.09ohm *SHUNT=3.73
B1               114       116  jjmod area=1.21
RS1              114       116   3.09ohm *SHUNT=3.73
B6               115       112  jjmod area=1.43
RS6              115       112   2.61ohm *SHUNT=3.73
B2               119       117  jjmod area=1.05
RS2              119       117   3.56ohm *SHUNT=3.73
B4                19       108  jjmod area=1.05
RS4               19       108   3.56ohm *SHUNT=3.73
.ends

*** cbh
.subckt cbh         82         83         84       124
***         a         b         c
R2               124        28   8.34ohm *FIX
R3               124       125   8.34ohm *FIX
R1               124       126   9.00ohm
LP6                7         0   0.216pH fcheck
LP1               34         0   0.307pH fcheck
L8                32        33   2.626pH fcheck
L5                15       107   1.178pH fcheck
L1                33        15   3.796pH fcheck
LP7              127         0   0.216pH fcheck
LP2              128         0   0.299pH fcheck
L9               129       130   2.623pH fcheck
LPR2              28        32   0.333pH fcheck
L6               131       132   1.180pH fcheck
L2               130       131   3.780pH fcheck
LPIN1             82        32   0.304pH fcheck
LPR3             125       129   0.346pH fcheck
LPIN2             83       129   0.294pH fcheck
L4                30        84   1.407pH fcheck
L7               133       134   0.523pH fcheck
L3               134        30   4.410pH fcheck
LP5               29         0   0.255pH fcheck
LPR1             126       134   0.029pH fcheck
B6                33         7  jjmod area=2.16
RS6               33         7   1.73ohm *SHUNT=3.73
B1                15        34  jjmod area=2.16
RS1               15        34   1.73ohm *SHUNT=3.73
B2               131       128  jjmod area=2.16
RS2              131       128   1.73ohm *SHUNT=3.73
B7               130       127  jjmod area=2.16
RS7              130       127   1.73ohm *SHUNT=3.73
B3               107       133  jjmod area=1.82
RS3              107       133   2.05ohm *SHUNT=3.73
B4               132       133  jjmod area=1.82
RS4              132       133   2.05ohm *SHUNT=3.73
B5                30        29  jjmod area=2.70
RS5               30        29   1.38ohm *SHUNT=3.73
.ends

*** spl3
.subckt spl3         82         83         84        135        20
***         a         b         c         d
B1                43        58  jjmod area=1.70
RS1               43        58   2.20ohm *SHUNT=3.73
B3                48        42  jjmod area=1.80
RS3               48        42   2.07ohm *SHUNT=3.73
B2                64       136  jjmod area=1.80
RS2               64       136   2.07ohm *SHUNT=3.73
B4                10        50  jjmod area=1.80
RS4               10        50   2.07ohm *SHUNT=3.73
L5                64        83   1.396pH fcheck
LP1               58         0   0.190pH fcheck
LP3               42         0   0.333pH fcheck
L1                34        43   1.612pH fcheck
L6                48        84   1.357pH fcheck
L8                43       137   0.504pH fcheck
LPR1              47        34   0.260pH fcheck
LPA               82        34   0.257pH fcheck
L9               137        52   0.073pH fcheck
L3                52        48   3.515pH fcheck
L2               137        64   3.528pH fcheck
LP2              136         0   0.260pH fcheck
LP4               50         0   0.229pH fcheck
L7                10       135   1.360pH fcheck
L4                52        10   3.552pH fcheck
R1                20        47   8.35ohm *FIX
.ends

*** jtl45degc
.subckt jtl45degc         35         36         38         39        58
***      dina      dinb     douta     doutb
R1A               58        59   8.34ohm
R1B               58        18   8.34ohm
LPINA             35        34   0.302pH fcheck
LPR1A             59        34   0.224pH fcheck
L2A               43        60   4.813pH fcheck
L3A               60        38   2.002pH fcheck
L1A               34        43   2.288pH fcheck
LP2A              61         0   0.286pH fcheck
LP1A              62         0   0.135pH fcheck
LPINB             36        63   0.361pH fcheck
LPR1B             18        63   0.244pH fcheck
L2B               44        64   4.878pH fcheck
L3B               64        39   2.041pH fcheck
L1B               63        44   2.512pH fcheck
LP2B              10         0   0.133pH fcheck
LP1B              21         0   0.088pH fcheck